# created with PyMOL 2.5.2
@<TRIPOS>MOLECULE
D0U4BB
21 22 1                 
SMALL
USER_CHARGES
@<TRIPOS>ATOM
1	   O	-0.016	1.346	0.009	O.3	1	UNK0	0.000	
2	   O	-2.296	-2.822	0.007	O.3	1	UNK0	0.000	
3	   O	1.054	3.278	0.010	O.co2	1	UNK0	0.000	
4	   C	1.232	-0.688	-0.013	C.2	1	UNK0	0.000	
5	   C	0.002	-0.004	0.002	C.2	1	UNK0	0.000	
6	   C	-1.180	-0.729	0.009	C.2	1	UNK0	0.000	
7	   C	1.255	-2.087	-0.022	C.2	1	UNK0	0.000	
8	   C	-1.138	-2.113	0.001	C.2	1	UNK0	0.000	
9	   C	0.083	-2.785	-0.014	C.2	1	UNK0	0.000	
10	   C	2.474	0.087	-0.021	C.2	1	UNK0	0.000	
11	   C	2.385	1.442	-0.013	C.2	1	UNK0	0.000	
12	   C	1.119	2.062	0.002	C.2	1	UNK0	0.000	
13	   C	-2.185	-4.247	-0.002	C.3	1	UNK0	0.000	
14	   H	-2.130	-0.216	0.021	 H	1	UNK0	0.000	
15	   H	2.198	-2.613	-0.033	 H	1	UNK0	0.000	
16	   H	0.101	-3.865	-0.020	 H	1	UNK0	0.000	
17	   H	3.435	-0.406	-0.032	 H	1	UNK0	0.000	
18	   H	3.283	2.044	-0.018	 H	1	UNK0	0.000	
19	   H	-1.637	-4.574	0.881	 H	1	UNK0	0.000	
20	   H	-3.182	-4.688	0.005	 H	1	UNK0	0.000	
21	   H	-1.653	-4.564	-0.899	 H	1	UNK0	0.000	
@<TRIPOS>BOND
1 1 5 1
2 1 12 1
3 2 8 1
4 2 13 1
5 3 12 2
6 4 5 2
7 4 7 1
8 4 10 1
9 5 6 1
10 6 8 2
11 6 14 1
12 7 9 2
13 7 15 1
14 8 9 1
15 9 16 1
16 10 11 2
17 10 17 1
18 11 12 1
19 11 18 1
20 13 19 1
21 13 20 1
22 13 21 1
@<TRIPOS>SUBSTRUCTURE
1	UNK0	1	GROUP	1 ****	UNK
